! RKS b3lyp_g 6-311+G(3df,2p) grid6 nofinalgrid 
! xyzfile
%maxcore 1000

*xyz 0 1
N  0.0       0.0       0.108827
H  0.0       0.947455 -0.253931
H  0.820520 -0.473727 -0.253931
H -0.820520 -0.473727 -0.253931
*

$new_job
! RKS 6-311+G(3df,2p) grid6 nofinalgrid
!  readints nofrozencore
%scf maxiter 1 end
%maxcore 1000
%method
 Functional b3lyp_g
 ACM 0.8033, 0.2107, 0.6789
 ScalLDAC = 0.6789
 ScalMP2C = 0.3211
end

*xyzfile 0 1


